
**** 07/08/24 17:52:39 ****** PSpice 23.1.0 (29 May 2024) ***** ID# 0 ********

 ** Profile: "SCHEMATIC-TRAN"  [ d:\projects\ownprojects\wsk2024_ma1\wsk2024_ma1-PSpiceFiles\SCHEMATIC\TRAN.sim ] 


 ****     CIRCUIT DESCRIPTION


******************************************************************************




** Creating circuit file "TRAN.cir" 
** WARNING: THIS AUTOMATICALLY GENERATED FILE MAY BE OVERWRITTEN BY SUBSEQUENT SIMULATIONS

*Libraries: 
* Profile Libraries :
* Local Libraries :
* From [PSPICE NETLIST] section of C:\SPB_Data\cdssetup\OrCAD_PSpice\23.1.0\PSpice.ini file:
.lib "nom.lib" 

*Analysis directives: 
.OP
.OPTIONS ADVCONV
.PROBE64 V(alias(*)) I(alias(*)) W(alias(*)) D(alias(*)) NOISE(alias(*)) 
.INC "..\SCHEMATIC.net" 



**** INCLUDING SCHEMATIC.net ****
* source WSK2024_MA1
.EXTERNAL INPUT S1
.EXTERNAL INPUT S2
.EXTERNAL INPUT S3
.EXTERNAL INPUT S4
.EXTERNAL INPUT V-
.EXTERNAL INPUT V+
X_U1         N02116 N02585 0 N02120 N02597 0 S4 S1 N02128 S2 awblm2917n14
V_V1         S1 0 DC 0Vdc AC 5Vac 
V_V2         S2 0 DC 0Vdc AC 2.5Vac 
C_C1         0 S4  1u  TC=0,0 
R_R1         N02128 S3  10k TC=0,0 
V_V3         S3 0 1Vdc
V_V4         S4 0 10Vdc
X_U2         N02116 N02120 N02585 N02597 V+ 0 V- AD830/AD
V_V5         V- 0 -5Vdc
V_V6         V+ 0 5Vdc

**** RESUMING TRAN.cir ****
.END

**** 07/08/24 17:52:39 ****** PSpice 23.1.0 (29 May 2024) ***** ID# 0 ********

 ** Profile: "SCHEMATIC-TRAN"  [ d:\projects\ownprojects\wsk2024_ma1\wsk2024_ma1-PSpiceFiles\SCHEMATIC\TRAN.sim ] 


 ****     Diode MODEL PARAMETERS


******************************************************************************




               X_U1.M2MDCLAMP3LM2907 
          IS    1.000000E-15 


               X_U1.M3MDSHUNT3LM2907 
          IS   33.970000E-15 
           N     .5          


               X_U1.M6MDCLAMP2LM2907 
          IS  100.000000E-15 


               X_U1.M7MDLIMLM2907 
          IS   10.000000E-15 


               X_U1.M8MDCLAMP1LM2907           X_U2.DX         
          IS    1.255500E-15                    1.000000E-15 
           N     .85                                         


**** 07/08/24 17:52:39 ****** PSpice 23.1.0 (29 May 2024) ***** ID# 0 ********

 ** Profile: "SCHEMATIC-TRAN"  [ d:\projects\ownprojects\wsk2024_ma1\wsk2024_ma1-PSpiceFiles\SCHEMATIC\TRAN.sim ] 


 ****     BJT MODEL PARAMETERS


******************************************************************************




               X_U1.M1MQOUTLM2907 
               NPN             
       LEVEL    1            
          IS   10.000000E-15 
          BF  100            
          NF    1            
          BR    1            
          NR    1            
         ISS    0            
          RE    0            
          RC    0            
         CJE    0            
         VJE     .75         
         CJC    0            
         VJC     .75         
         MJC     .33         
        XCJC    1            
         CJS    0            
         VJS     .75         
          KF    0            
          AF    1            
          CN    2.42         
           D     .87         


               X_U1.M4MQAMP4LM2907 
               PNP             
       LEVEL    1            
          IS    1.000000E-15 
          BF  100            
          NF    1            
          BR    1            
          NR    1            
         ISS    0            
          RE    0            
          RC    0            
         CJE    0            
         VJE     .75         
         CJC    0            
         VJC     .75         
         MJC     .33         
        XCJC    1            
         CJS    0            
         VJS     .75         
          KF    0            
          AF    1            
          CN    2.2          
           D     .52         


               X_U1.M5MQAMP3LM2907 
               PNP             
       LEVEL    1            
          IS    1.000000E-15 
          BF  100            
          NF    1            
          BR    1            
          NR    1            
         ISS    0            
          RE    0            
          RC    0            
         CJE    0            
         VJE     .75         
         CJC    0            
         VJC     .75         
         MJC     .33         
        XCJC    1            
         CJS    0            
         VJS     .75         
          KF    0            
          AF    1            
          CN    2.2          
           D     .52         


               X_U1.M9MQAMP2LM2907 
               PNP             
       LEVEL    1            
          IS    1.000000E-15 
          BF  500            
          NF    1            
          BR    1            
          NR    1            
         ISS    0            
          RE    0            
          RC    0            
         CJE    0            
         VJE     .75         
         CJC    0            
         VJC     .75         
         MJC     .33         
        XCJC    1            
         CJS    0            
         VJS     .75         
          KF    0            
          AF    1            
          CN    2.2          
           D     .52         


               X_U1.M10MQAMP1LM2907            X_U2.QX         
               PNP                             NPN             
       LEVEL    1                               1            
          IS    1.000000E-15                  100.000000E-18 
          BF  500                             202            
          NF    1                               1            
          BR    1                               1            
          NR    1                               1            
         ISS    0                               0            
          RE    0                               0            
          RC    0                               0            
         CJE    0                               0            
         VJE     .75                             .75         
         CJC    0                               0            
         VJC     .75                             .75         
         MJC     .33                             .33         
        XCJC    1                               1            
         CJS    0                               0            
         VJS     .75                             .75         
          KF    0                               0            
          AF    1                               1            
          CN    2.2                             2.42         
           D     .52                             .87         


Starting pseudo-transient algorithm.

INFO(ORPSIM-16594): To improve Pseudotransient Convergence and Performance, set following options to relax stabilization criteria for capacitor currents and inductor voltages: PTRANABSTOL=1e-5, PTRANVNTOL=1e-4

ERROR -- Convergence problem in bias point calculation


  Last node voltages tried were:

 NODE   VOLTAGE     NODE   VOLTAGE     NODE   VOLTAGE     NODE   VOLTAGE


(   S1)    0.0000  (   S2)    0.0000  (   S3)     .2222  (   S4)    2.2222      

(   V+)    1.1111  (   V-)   -1.1111  (N02116)    -.5721 (N02120)    -.2053     

(N02128)     .2222 (N02585)    -.4521 (N02597)    -.2141 (X_U1.2)   -1.3333     

(X_U1.3)    -.0539 (X_U1.4)    -.3000 (X_U1.5) 443.0E-06 (X_U1.6)     .2222     

(X_U1.7)     .6166 (X_U1.8)    -.3957 (X_U2.9)   -1.2820 (X_U1.10)    5.1110    

(X_U1.12)   -1.3331                   (X_U1.13)     .2222                       

(X_U1.14)    -.1097                   (X_U1.16)    -.2258                       

(X_U1.17)   -1.3333                   (X_U1.18)-11.99E+03                       

(X_U1.19)    -.6879                   (X_U1.20)    -.6879                       

(X_U1.21)-11.99E+03                   (X_U1.22)    -.0244                       

(X_U1.23)    -.0879                   (X_U1.24)    -.2105                       

(X_U1.25)     .0982                   (X_U1.26)    -.4521                       

(X_U1.27)    -.3494                   (X_U1.29)    -.2497                       

(X_U1.30)     .2222                   (X_U1.31)    0.0000                       

(X_U1.32)     .1854                   (X_U1.33)    0.0000                       

(X_U1.34)     .5749                   (X_U1.36)   -1.0796                       

(X_U1.38)   -1.0758                   (X_U1.39)     .5561                       

(X_U1.42)     .4398                   (X_U1.44)    0.0000                       

(X_U1.45)    -.0636                   (X_U1.46)     .4647                       

(X_U1.47)   16.8590                   (X_U1.48)     .0483                       

(X_U1.50)    -.3125                   (X_U1.51)    -.1271                       

(X_U2.10)    -.9726                   (X_U2.11)    -.2056                       

(X_U2.12)   -1.3717                   (X_U2.13)    -.2144                       

(X_U2.14)   -1.1971                   (X_U2.15)    -.9756                       

(X_U2.16)   -1.3333                   (X_U2.17)   -1.1849                       

(X_U2.18)    -.9560                   (X_U2.19)-279.2E-27                       

(X_U2.20)   -1.4889                   (X_U2.21)    1.4889                       

(X_U2.22)-37.12E-18                   (X_U2.23)-5.079E-18                       

(X_U2.24)    0.0000                   (X_U2.25)     .1644                       

(X_U2.26)    -.1644                   (X_U2.29)-30.93E-21                       

(X_U2.30)     .8637                   (X_U2.31) 867.5E-09                       

(X_U2.32)   -1.0960                   (X_U2.33)    -.8671                       

(X_U2.70) 1.477E-09                   (X_U2.71)    0.0000                       

(X_U2.72)    0.0000                   (X_U2.98)    0.0000                   


  These voltages failed to converge:

    V(N02597)                 =     9.400V  \  -214.10mV
    V(N02120)                 =     3.617V  \  -205.26mV
    V(X_U1.26)                =     9.162V  \  -452.12mV
    V(X_U1.42)                =     7.020V  \   439.82mV
    V(X_U1.51)                =   722.21mV  \  -127.14mV
    V(X_U1.50)                =   536.85mV  \  -312.49mV
    V(X_U1.48)                =     1.841V  \    48.29mV
    V(X_U1.45)                =   361.10mV  \   -63.57mV
    V(X_U1.46)                =     12.15V  \   464.70mV
    V(X_U1.47)                =     17.28V  \     16.86V
    V(N02116)                 =     3.250V  \  -572.12mV
    V(X_U1.38)                =    -1.291V  \    -1.076V
    V(X_U1.36)                =    -1.294V  \    -1.080V
    V(X_U1.39)                =   557.02mV  \   556.12mV
    V(X_U1.29)                =   599.67mV  \  -249.67mV
    V(X_U1.34)                =  -836.28mV  \   574.94mV
    V(N02585)                 =     9.162V  \  -452.12mV
    V(X_U1.25)                =   260.96mV  \    98.17mV
    V(X_U1.22)                =   138.42mV  \   -24.37mV
    V(X_U1.24)                =   376.99mV  \  -210.47mV
    V(X_U1.23)                =   499.53mV  \   -87.94mV
    V(X_U1.8)                 =     2.248V  \  -395.72mV
    V(X_U1.14)                =   622.92mV  \  -109.66mV
    V(X_U1.20)                =   -11.80KV  \  -687.95mV
    V(X_U1.19)                =   -11.80KV  \  -687.95mV
    V(X_U1.27)                =   499.99mV  \  -349.35mV
    V(X_U1.18)                =   -11.80KV  \   -11.99KV
    V(X_U1.21)                =   -11.80KV  \   -11.99KV
    V(X_U1.3)                 =   -53.09mV  \   -53.94mV
    V(X_U1.16)                =  -222.02mV  \  -225.83mV
    V(X_U1.5)                 =   444.52uV  \   442.99uV
    V(X_U2.17)                =     10.14V  \    -1.185V
    V(X_U2.9)                 =     6.166V  \    -1.282V
    V(X_U2.18)                =     25.32V  \  -955.99mV
    V(X_U2.11)                =     38.81V  \  -205.59mV
    V(X_U2.10)                =     31.00V  \  -972.61mV
    V(X_U2.12)                =     18.34V  \    -1.372V
    V(X_U2.31)                =    -35.20V  \   867.46nV
    V(X_U2.14)                =      9.71V  \    -1.197V
    V(X_U2.13)                =     9.399V  \  -214.43mV
    V(X_U2.15)                =     16.27V  \  -975.65mV
    V(X_U2.16)                =     12.74V  \    -1.333V
    V(X_U2.32)                =     10.23V  \    -1.096V
    V(X_U2.33)                =     25.41V  \  -867.10mV
    V(X_U2.30)                =    -34.33V  \   863.74mV

  These supply currents failed to converge:

    I(X_U1.EV26)              =   890.02pA  \     3.274A
    I(X_U1.EV25)              =    -1.026A  \   -4.976mA
    I(X_U1.EV24)              =     1.026A  \    4.976mA
    I(X_U1.EV23)              =    -1.026A  \    -3.279A
    I(X_U1.EV18)              =    8.688pA  \  -341.64fA
    I(X_U1.EV17)              =    63.33mA  \  -173.80uA
    I(X_U1.EV11)              =   954.38mA  \    4.288mA
    I(X_U1.EV4)               =    51.49nA  \    1.199KA
    I(X_U1.EV3)               =    51.50nA  \    1.199KA
    I(X_U1.EV2)               =    53.09nA  \    53.94nA
    I(X_U2.EOS1)              =   197.62mA  \   402.00uA
    I(X_U2.EREF)              =   -1.487nA  \    38.68pA
    I(X_U2.E3)                =    -35.20A  \   867.53nA
    I(V_V1)                   =    22.53nA  \    21.78nA
    I(V_V2)                   =    44.45nA  \    44.30nA
    I(V_V4)                   =   -8.911mA  \    1.099mA
    I(V_V5)                   =    23.20mA  \    10.00GA
    I(V_V6)                   =   -22.31mA  \   -10.00GA
    I(X_U1.VV29)              =   -11.80nA  \   -5.800pA
    I(X_U1.VV28)              =    6.836pA  \   255.46fA
    I(X_U1.VV27)              =  -954.38mA  \   -4.288mA
    I(X_U1.VV22)              =   -1.581uA  \    -9.88uA
    I(X_U1.VV21)              =    49.58nA  \   -1.557nA
    I(X_U1.VFI6)              =   826.28fA  \  -584.94fA
    I(X_U1.VFI5)              =   -2.415mA  \    45.08uA
    I(X_U1.VFI3)              =   -10.87mA  \   202.88uA
    I(X_U1.VV20)              =    63.33mA  \  -173.80uA
    I(X_U1.VV19)              =   -8.688pA  \   341.64fA
    I(X_U1.VV9)               =   -39.69nA  \   -1.199KA
    I(X_U1.VV7)               =    11.80nA  \   339.85fA
    I(X_U1.VV6)               =   -39.69nA  \   -1.199KA
    I(X_U1.VV5)               =   -53.09nA  \   -53.94nA
    I(X_U1.VV1)               =   -22.23uA  \   -22.15uA
    I(X_U2.VOS2)              =  -182.90mA  \   285.96uA
    I(X_U2.VC1)               =   -11.59pA  \   -15.54fA
    I(X_U2.VC2)               =   -26.52pA  \  -244.99fA
    I(X_U2.V2)                =   -4.626pA  \   -10.00GA
    I(X_U2.V3)                =   -4.626pA  \   -10.00GA

  These devices failed to converge:
    X_U1.DD19 X_U1.DD17 X_U1.DD16 X_U1.DD15 X_U1.DD13 X_U1.DD10 X_U1.DD9  
    X_U1.DD6  X_U1.DD2  X_U1.DD1  X_U2.D1   X_U2.D2   X_U2.F1   X_U1.QQ5  
    X_U2.Q1   X_U2.Q2   X_U2.Q3   X_U2.Q4   

**** Interrupt ****
**** Param: RELTOL = 0.001
**** Param: ABSTOL = 1e-12
**** Param: VNTOL = 1e-06
**** Param: GMIN = 1e-12
**** Param: TSTOP = 0.01
**** Param: TMAX = 10
**** Param: ITL1 = 150
**** Param: ITL2 = 20
**** Param: ITL4 = 100
**** Param: AutoConverge = 0
**** Param: AutoConverge.ITL1 = 1000
**** Param: AutoConverge.ITL2 = 1000
**** Param: AutoConverge.ITL4 = 1000
**** Param: AutoConverge.RELTOL = 0.05
**** Param: AutoConverge.ABSTOL = 0.001
**** Param: AutoConverge.VNTOL = 0.001
**** Param: AutoConverge.PIVTOL = 1e-10
**** Param: ADVCONV = 1
**** Param: Current_Simulation = 0
**** Param: METHOD = 0
**** Param: TRTOL = 7
**** Param: STEPGMIN = 0
**** Param: GMINSTEPS = 0
**** Param: ITL6 = 0
**** Param: NOSTEPDEP = 0
**** Param: PTRANSTEP = 0
**** Param: GMINSRC = 0
**** Param: PSEUDOTRAN = 0
**** Param: NOSTEPSRC = 0

ERROR -- Convergence problem in bias point calculation


  Last node voltages tried were:

 NODE   VOLTAGE     NODE   VOLTAGE     NODE   VOLTAGE     NODE   VOLTAGE


(   S1)    0.0000  (   S2)    0.0000  (   S3)     .2222  (   S4)    2.2222      

(   V+)    1.1111  (   V-)   -1.1111  (N02116)    -.5721 (N02120)    -.1845     

(N02128)     .2222 (N02585)    -.4498 (N02597)    -.1933 (X_U1.2)   -1.3333     

(X_U1.3)    -.0539 (X_U1.4)    -.3000 (X_U1.5) 443.0E-06 (X_U1.6)     .2222     

(X_U1.7)     .6166 (X_U1.8)    -.3957 (X_U2.9)   -1.2793 (X_U1.10)    5.1110    

(X_U1.12)   -1.3331                   (X_U1.13)     .2222                       

(X_U1.14)    -.1097                   (X_U1.16)    -.2258                       

(X_U1.17)   -1.3333                   (X_U1.18)-11.99E+03                       

(X_U1.19)    -.6879                   (X_U1.20)    -.6879                       

(X_U1.21)-11.99E+03                   (X_U1.22)    -.0244                       

(X_U1.23)    -.0879                   (X_U1.24)    -.2105                       

(X_U1.25)     .0982                   (X_U1.26)    -.4498                       

(X_U1.27)    -.3493                   (X_U1.29)    -.2497                       

(X_U1.30)     .2222                   (X_U1.31)    0.0000                       

(X_U1.32)     .1854                   (X_U1.33)    0.0000                       

(X_U1.34)     .5730                   (X_U1.36)   -1.3333                       

(X_U1.38)   -1.2206                   (X_U1.39)     .5561                       

(X_U1.42)     .4612                   (X_U1.44)    0.0000                       

(X_U1.45)    -.0636                   (X_U1.46)     .5137                       

(X_U1.47)  500.8200                   (X_U1.48)     .0530                       

(X_U1.50)    -.3125                   (X_U1.51)    -.1271                       

(X_U2.10)    -.9524                   (X_U2.11)    -.1848                       

(X_U2.12)   -1.3603                   (X_U2.13)    -.1936                       

(X_U2.14)   -1.1930                   (X_U2.15)    -.9554                       

(X_U2.16)   -1.3211                   (X_U2.17)   -1.1806                       

(X_U2.18)    -.9358                   (X_U2.19)-274.6E-27                       

(X_U2.20)   -1.4889                   (X_U2.21)    1.4889                       

(X_U2.22)-61.03E-27                   (X_U2.23)-13.56E-27                       

(X_U2.24)    0.0000                   (X_U2.25)     .1644                       

(X_U2.26)    -.1644                   (X_U2.29)    0.0000                       

(X_U2.30)     .8406                   (X_U2.31) 840.6E-09                       

(X_U2.32)   -1.0917                   (X_U2.33)    -.8469                       

(X_U2.70) 3.967E-18                   (X_U2.71)    0.0000                       

(X_U2.72)    0.0000                   (X_U2.98)    0.0000                   


  These voltages failed to converge:

    V(X_U2.11)                =  -185.94mV  \  -184.79mV
    V(X_U2.31)                =    3.783uV  \   840.60nV
    V(X_U2.30)                =     3.783V  \   840.60mV

  These supply currents failed to converge:

    I(X_U1.EV17)              =  -159.33uA  \  -158.85uA
    I(X_U2.EOS1)              =   404.09uA  \   410.93uA
    I(X_U2.E3)                =    3.783uA  \   840.60nA
    I(V_V5)                   =    10.00GA  \    10.00GA
    I(V_V6)                   =   -10.00GA  \   -10.00GA
    I(X_U1.VFI5)              =    41.87uA  \    41.76uA
    I(X_U1.VFI3)              =   188.41uA  \   187.94uA
    I(X_U1.VV20)              =  -159.33uA  \  -158.85uA
    I(X_U2.VOS2)              =   298.67uA  \   292.31uA
    I(X_U2.V2)                =   -10.00GA  \   -10.00GA
    I(X_U2.V3)                =   -10.00GA  \   -10.00GA

  These devices failed to converge:
    X_U2.Q2   X_U2.Q4   

**** Interrupt ****
**** Param: RELTOL = 0.001
**** Param: ABSTOL = 1e-12
**** Param: VNTOL = 1e-06
**** Param: GMIN = 1e-12
**** Param: TSTOP = 0.01
**** Param: TMAX = 10
**** Param: ITL1 = 150
**** Param: ITL2 = 20
**** Param: ITL4 = 100
**** Param: AutoConverge = 0
**** Param: AutoConverge.ITL1 = 1000
**** Param: AutoConverge.ITL2 = 1000
**** Param: AutoConverge.ITL4 = 1000
**** Param: AutoConverge.RELTOL = 0.05
**** Param: AutoConverge.ABSTOL = 0.001
**** Param: AutoConverge.VNTOL = 0.001
**** Param: AutoConverge.PIVTOL = 1e-10
**** Param: ADVCONV = 1
**** Param: Current_Simulation = 0
**** Param: METHOD = 0
**** Param: TRTOL = 7
**** Param: STEPGMIN = 0
**** Param: GMINSTEPS = 0
**** Param: ITL6 = 0
**** Param: NOSTEPDEP = 0
**** Param: PTRANSTEP = 0
**** Param: GMINSRC = 0
**** Param: PSEUDOTRAN = 0
**** Param: NOSTEPSRC = 0

ERROR -- Convergence problem in bias point calculation


  Last node voltages tried were:

 NODE   VOLTAGE     NODE   VOLTAGE     NODE   VOLTAGE     NODE   VOLTAGE


(   S1)    0.0000  (   S2)    0.0000  (   S3)     .2222  (   S4)    2.2222      

(   V+)    1.1111  (   V-)   -1.1111  (N02116)    -.5721 (N02120)    -.1845     

(N02128)     .2222 (N02585)    -.4498 (N02597)    -.1933 (X_U1.2)   -1.3333     

(X_U1.3)    -.0539 (X_U1.4)    -.3000 (X_U1.5) 443.0E-06 (X_U1.6)     .2222     

(X_U1.7)     .6166 (X_U1.8)    -.3957 (X_U2.9)   -1.2793 (X_U1.10)    5.1110    

(X_U1.12)   -1.3331                   (X_U1.13)     .2222                       

(X_U1.14)    -.1097                   (X_U1.16)    -.2258                       

(X_U1.17)   -1.3333                   (X_U1.18)-11.99E+03                       

(X_U1.19)    -.6879                   (X_U1.20)    -.6879                       

(X_U1.21)-11.99E+03                   (X_U1.22)    -.0244                       

(X_U1.23)    -.0879                   (X_U1.24)    -.2105                       

(X_U1.25)     .0982                   (X_U1.26)    -.4498                       

(X_U1.27)    -.3493                   (X_U1.29)    -.2497                       

(X_U1.30)     .2222                   (X_U1.31)    0.0000                       

(X_U1.32)     .1854                   (X_U1.33)    0.0000                       

(X_U1.34)     .5730                   (X_U1.36)   -1.3333                       

(X_U1.38)   -1.2206                   (X_U1.39)     .5561                       

(X_U1.42)     .4612                   (X_U1.44)    0.0000                       

(X_U1.45)    -.0636                   (X_U1.46)     .5137                       

(X_U1.47)  500.8200                   (X_U1.48)     .0530                       

(X_U1.50)    -.3125                   (X_U1.51)    -.1271                       

(X_U2.10)    -.9524                   (X_U2.11)    -.1848                       

(X_U2.12)   -1.3603                   (X_U2.13)    -.1936                       

(X_U2.14)   -1.1930                   (X_U2.15)    -.9554                       

(X_U2.16)   -1.3211                   (X_U2.17)   -1.1806                       

(X_U2.18)    -.9358                   (X_U2.19)-274.6E-27                       

(X_U2.20)   -1.4889                   (X_U2.21)    1.4889                       

(X_U2.22)-61.03E-27                   (X_U2.23)-13.56E-27                       

(X_U2.24)    0.0000                   (X_U2.25)     .1644                       

(X_U2.26)    -.1644                   (X_U2.29)    0.0000                       

(X_U2.30)     .8406                   (X_U2.31) 840.6E-09                       

(X_U2.32)   -1.0917                   (X_U2.33)    -.8469                       

(X_U2.70) 3.967E-18                   (X_U2.71)    0.0000                       

(X_U2.72)    0.0000                   (X_U2.98)    0.0000                   


  These voltages failed to converge:

    V(X_U2.11)                =  -185.94mV  \  -184.79mV
    V(X_U2.31)                =    3.783uV  \   840.60nV
    V(X_U2.30)                =     3.783V  \   840.60mV

  These supply currents failed to converge:

    I(X_U1.EV17)              =  -159.33uA  \  -158.85uA
    I(X_U2.EOS1)              =   404.09uA  \   410.93uA
    I(X_U2.E3)                =    3.783uA  \   840.60nA
    I(V_V5)                   =    10.00GA  \    10.00GA
    I(V_V6)                   =   -10.00GA  \   -10.00GA
    I(X_U1.VFI5)              =    41.87uA  \    41.76uA
    I(X_U1.VFI3)              =   188.41uA  \   187.94uA
    I(X_U1.VV20)              =  -159.33uA  \  -158.85uA
    I(X_U2.VOS2)              =   298.67uA  \   292.31uA
    I(X_U2.V2)                =   -10.00GA  \   -10.00GA
    I(X_U2.V3)                =   -10.00GA  \   -10.00GA

  These devices failed to converge:
    X_U2.Q2   X_U2.Q4   

**** Interrupt ****
**** Param: RUNFOR = 1000ns

ERROR -- Convergence problem in bias point calculation


  Last node voltages tried were:

 NODE   VOLTAGE     NODE   VOLTAGE     NODE   VOLTAGE     NODE   VOLTAGE


(   S1)    0.0000  (   S2)    0.0000  (   S3)     .2222  (   S4)    2.2222      

(   V+)    1.1111  (   V-)   -1.1111  (N02116)    -.5721 (N02120)    -.1845     

(N02128)     .2222 (N02585)    -.4498 (N02597)    -.1933 (X_U1.2)   -1.3333     

(X_U1.3)    -.0539 (X_U1.4)    -.3000 (X_U1.5) 443.0E-06 (X_U1.6)     .2222     

(X_U1.7)     .6166 (X_U1.8)    -.3957 (X_U2.9)   -1.2793 (X_U1.10)    5.1110    

(X_U1.12)   -1.3331                   (X_U1.13)     .2222                       

(X_U1.14)    -.1097                   (X_U1.16)    -.2258                       

(X_U1.17)   -1.3333                   (X_U1.18)-11.99E+03                       

(X_U1.19)    -.6879                   (X_U1.20)    -.6879                       

(X_U1.21)-11.99E+03                   (X_U1.22)    -.0244                       

(X_U1.23)    -.0879                   (X_U1.24)    -.2105                       

(X_U1.25)     .0982                   (X_U1.26)    -.4498                       

(X_U1.27)    -.3493                   (X_U1.29)    -.2497                       

(X_U1.30)     .2222                   (X_U1.31)    0.0000                       

(X_U1.32)     .1854                   (X_U1.33)    0.0000                       

(X_U1.34)     .5730                   (X_U1.36)   -1.3333                       

(X_U1.38)   -1.2206                   (X_U1.39)     .5561                       

(X_U1.42)     .4612                   (X_U1.44)    0.0000                       

(X_U1.45)    -.0636                   (X_U1.46)     .5137                       

(X_U1.47)  500.8200                   (X_U1.48)     .0530                       

(X_U1.50)    -.3125                   (X_U1.51)    -.1271                       

(X_U2.10)    -.9524                   (X_U2.11)    -.1848                       

(X_U2.12)   -1.3603                   (X_U2.13)    -.1936                       

(X_U2.14)   -1.1930                   (X_U2.15)    -.9554                       

(X_U2.16)   -1.3211                   (X_U2.17)   -1.1806                       

(X_U2.18)    -.9358                   (X_U2.19)-274.6E-27                       

(X_U2.20)   -1.4889                   (X_U2.21)    1.4889                       

(X_U2.22)-61.03E-27                   (X_U2.23)-13.56E-27                       

(X_U2.24)    0.0000                   (X_U2.25)     .1644                       

(X_U2.26)    -.1644                   (X_U2.29)    0.0000                       

(X_U2.30)     .8406                   (X_U2.31) 840.6E-09                       

(X_U2.32)   -1.0917                   (X_U2.33)    -.8469                       

(X_U2.70) 3.967E-18                   (X_U2.71)    0.0000                       

(X_U2.72)    0.0000                   (X_U2.98)    0.0000                   


  These voltages failed to converge:

    V(X_U2.11)                =  -185.94mV  \  -184.79mV
    V(X_U2.31)                =    3.783uV  \   840.60nV
    V(X_U2.30)                =     3.783V  \   840.60mV

  These supply currents failed to converge:

    I(X_U1.EV17)              =  -159.33uA  \  -158.85uA
    I(X_U2.EOS1)              =   404.09uA  \   410.93uA
    I(X_U2.E3)                =    3.783uA  \   840.60nA
    I(V_V5)                   =    10.00GA  \    10.00GA
    I(V_V6)                   =   -10.00GA  \   -10.00GA
    I(X_U1.VFI5)              =    41.87uA  \    41.76uA
    I(X_U1.VFI3)              =   188.41uA  \   187.94uA
    I(X_U1.VV20)              =  -159.33uA  \  -158.85uA
    I(X_U2.VOS2)              =   298.67uA  \   292.31uA
    I(X_U2.V2)                =   -10.00GA  \   -10.00GA
    I(X_U2.V3)                =   -10.00GA  \   -10.00GA

  These devices failed to converge:
    X_U2.Q2   X_U2.Q4   

**** Interrupt ****
**** Param: RELTOL = 0.001
**** Param: ABSTOL = 1e-12
**** Param: VNTOL = 1e-06
**** Param: GMIN = 1e-12
**** Param: TSTOP = 0.01
**** Param: TMAX = 10
**** Param: ITL1 = 150
**** Param: ITL2 = 20
**** Param: ITL4 = 100
**** Param: AutoConverge = 0
**** Param: AutoConverge.ITL1 = 1000
**** Param: AutoConverge.ITL2 = 1000
**** Param: AutoConverge.ITL4 = 1000
**** Param: AutoConverge.RELTOL = 0.05
**** Param: AutoConverge.ABSTOL = 0.001
**** Param: AutoConverge.VNTOL = 0.001
**** Param: AutoConverge.PIVTOL = 1e-10
**** Param: ADVCONV = 1
**** Param: Current_Simulation = 0
**** Param: METHOD = 0
**** Param: TRTOL = 7
**** Param: STEPGMIN = 0
**** Param: GMINSTEPS = 0
**** Param: ITL6 = 0
**** Param: NOSTEPDEP = 0
**** Param: PTRANSTEP = 0
**** Param: GMINSRC = 0
**** Param: PSEUDOTRAN = 0
**** Param: NOSTEPSRC = 0

ERROR -- Convergence problem in bias point calculation


  Last node voltages tried were:

 NODE   VOLTAGE     NODE   VOLTAGE     NODE   VOLTAGE     NODE   VOLTAGE


(   S1)    0.0000  (   S2)    0.0000  (   S3)     .2222  (   S4)    2.2222      

(   V+)    1.1111  (   V-)   -1.1111  (N02116)    -.5721 (N02120)    -.1845     

(N02128)     .2222 (N02585)    -.4498 (N02597)    -.1933 (X_U1.2)   -1.3333     

(X_U1.3)    -.0539 (X_U1.4)    -.3000 (X_U1.5) 443.0E-06 (X_U1.6)     .2222     

(X_U1.7)     .6166 (X_U1.8)    -.3957 (X_U2.9)   -1.2793 (X_U1.10)    5.1110    

(X_U1.12)   -1.3331                   (X_U1.13)     .2222                       

(X_U1.14)    -.1097                   (X_U1.16)    -.2258                       

(X_U1.17)   -1.3333                   (X_U1.18)-11.99E+03                       

(X_U1.19)    -.6879                   (X_U1.20)    -.6879                       

(X_U1.21)-11.99E+03                   (X_U1.22)    -.0244                       

(X_U1.23)    -.0879                   (X_U1.24)    -.2105                       

(X_U1.25)     .0982                   (X_U1.26)    -.4498                       

(X_U1.27)    -.3493                   (X_U1.29)    -.2497                       

(X_U1.30)     .2222                   (X_U1.31)    0.0000                       

(X_U1.32)     .1854                   (X_U1.33)    0.0000                       

(X_U1.34)     .5730                   (X_U1.36)   -1.3333                       

(X_U1.38)   -1.2206                   (X_U1.39)     .5561                       

(X_U1.42)     .4612                   (X_U1.44)    0.0000                       

(X_U1.45)    -.0636                   (X_U1.46)     .5137                       

(X_U1.47)  500.8200                   (X_U1.48)     .0530                       

(X_U1.50)    -.3125                   (X_U1.51)    -.1271                       

(X_U2.10)    -.9524                   (X_U2.11)    -.1848                       

(X_U2.12)   -1.3603                   (X_U2.13)    -.1936                       

(X_U2.14)   -1.1930                   (X_U2.15)    -.9554                       

(X_U2.16)   -1.3211                   (X_U2.17)   -1.1806                       

(X_U2.18)    -.9358                   (X_U2.19)-274.6E-27                       

(X_U2.20)   -1.4889                   (X_U2.21)    1.4889                       

(X_U2.22)-61.03E-27                   (X_U2.23)-13.56E-27                       

(X_U2.24)    0.0000                   (X_U2.25)     .1644                       

(X_U2.26)    -.1644                   (X_U2.29)    0.0000                       

(X_U2.30)     .8406                   (X_U2.31) 840.6E-09                       

(X_U2.32)   -1.0917                   (X_U2.33)    -.8469                       

(X_U2.70) 3.967E-18                   (X_U2.71)    0.0000                       

(X_U2.72)    0.0000                   (X_U2.98)    0.0000                   


  These voltages failed to converge:

    V(X_U2.11)                =  -185.94mV  \  -184.79mV
    V(X_U2.31)                =    3.783uV  \   840.60nV
    V(X_U2.30)                =     3.783V  \   840.60mV

  These supply currents failed to converge:

    I(X_U1.EV17)              =  -159.33uA  \  -158.85uA
    I(X_U2.EOS1)              =   404.09uA  \   410.93uA
    I(X_U2.E3)                =    3.783uA  \   840.60nA
    I(V_V5)                   =    10.00GA  \    10.00GA
    I(V_V6)                   =   -10.00GA  \   -10.00GA
    I(X_U1.VFI5)              =    41.87uA  \    41.76uA
    I(X_U1.VFI3)              =   188.41uA  \   187.94uA
    I(X_U1.VV20)              =  -159.33uA  \  -158.85uA
    I(X_U2.VOS2)              =   298.67uA  \   292.31uA
    I(X_U2.V2)                =   -10.00GA  \   -10.00GA
    I(X_U2.V3)                =   -10.00GA  \   -10.00GA

  These devices failed to converge:
    X_U2.Q2   X_U2.Q4   

**** Interrupt ****
**** Param: RUNFOR = 1000ns

ERROR -- Convergence problem in bias point calculation


  Last node voltages tried were:

 NODE   VOLTAGE     NODE   VOLTAGE     NODE   VOLTAGE     NODE   VOLTAGE


(   S1)    0.0000  (   S2)    0.0000  (   S3)     .2222  (   S4)    2.2222      

(   V+)    1.1111  (   V-)   -1.1111  (N02116)    -.5721 (N02120)    -.1845     

(N02128)     .2222 (N02585)    -.4498 (N02597)    -.1933 (X_U1.2)   -1.3333     

(X_U1.3)    -.0539 (X_U1.4)    -.3000 (X_U1.5) 443.0E-06 (X_U1.6)     .2222     

(X_U1.7)     .6166 (X_U1.8)    -.3957 (X_U2.9)   -1.2793 (X_U1.10)    5.1110    

(X_U1.12)   -1.3331                   (X_U1.13)     .2222                       

(X_U1.14)    -.1097                   (X_U1.16)    -.2258                       

(X_U1.17)   -1.3333                   (X_U1.18)-11.99E+03                       

(X_U1.19)    -.6879                   (X_U1.20)    -.6879                       

(X_U1.21)-11.99E+03                   (X_U1.22)    -.0244                       

(X_U1.23)    -.0879                   (X_U1.24)    -.2105                       

(X_U1.25)     .0982                   (X_U1.26)    -.4498                       

(X_U1.27)    -.3493                   (X_U1.29)    -.2497                       

(X_U1.30)     .2222                   (X_U1.31)    0.0000                       

(X_U1.32)     .1854                   (X_U1.33)    0.0000                       

(X_U1.34)     .5730                   (X_U1.36)   -1.3333                       

(X_U1.38)   -1.2206                   (X_U1.39)     .5561                       

(X_U1.42)     .4612                   (X_U1.44)    0.0000                       

(X_U1.45)    -.0636                   (X_U1.46)     .5137                       

(X_U1.47)  500.8200                   (X_U1.48)     .0530                       

(X_U1.50)    -.3125                   (X_U1.51)    -.1271                       

(X_U2.10)    -.9524                   (X_U2.11)    -.1848                       

(X_U2.12)   -1.3603                   (X_U2.13)    -.1936                       

(X_U2.14)   -1.1930                   (X_U2.15)    -.9554                       

(X_U2.16)   -1.3211                   (X_U2.17)   -1.1806                       

(X_U2.18)    -.9358                   (X_U2.19)-274.6E-27                       

(X_U2.20)   -1.4889                   (X_U2.21)    1.4889                       

(X_U2.22)-61.03E-27                   (X_U2.23)-13.56E-27                       

(X_U2.24)    0.0000                   (X_U2.25)     .1644                       

(X_U2.26)    -.1644                   (X_U2.29)    0.0000                       

(X_U2.30)     .8406                   (X_U2.31) 840.6E-09                       

(X_U2.32)   -1.0917                   (X_U2.33)    -.8469                       

(X_U2.70) 3.967E-18                   (X_U2.71)    0.0000                       

(X_U2.72)    0.0000                   (X_U2.98)    0.0000                   


  These voltages failed to converge:

    V(X_U2.11)                =  -185.94mV  \  -184.79mV
    V(X_U2.31)                =    3.783uV  \   840.60nV
    V(X_U2.30)                =     3.783V  \   840.60mV

  These supply currents failed to converge:

    I(X_U1.EV17)              =  -159.33uA  \  -158.85uA
    I(X_U2.EOS1)              =   404.09uA  \   410.93uA
    I(X_U2.E3)                =    3.783uA  \   840.60nA
    I(V_V5)                   =    10.00GA  \    10.00GA
    I(V_V6)                   =   -10.00GA  \   -10.00GA
    I(X_U1.VFI5)              =    41.87uA  \    41.76uA
    I(X_U1.VFI3)              =   188.41uA  \   187.94uA
    I(X_U1.VV20)              =  -159.33uA  \  -158.85uA
    I(X_U2.VOS2)              =   298.67uA  \   292.31uA
    I(X_U2.V2)                =   -10.00GA  \   -10.00GA
    I(X_U2.V3)                =   -10.00GA  \   -10.00GA

  These devices failed to converge:
    X_U2.Q2   X_U2.Q4   

**** Interrupt ****
**** Param: RELTOL = 0.001
**** Param: ABSTOL = 1e-12
**** Param: VNTOL = 1e-06
**** Param: GMIN = 1e-12
**** Param: TSTOP = 0.01
**** Param: TMAX = 10
**** Param: ITL1 = 150
**** Param: ITL2 = 20
**** Param: ITL4 = 100
**** Param: AutoConverge = 0
**** Param: AutoConverge.ITL1 = 1000
**** Param: AutoConverge.ITL2 = 1000
**** Param: AutoConverge.ITL4 = 1000
**** Param: AutoConverge.RELTOL = 0.05
**** Param: AutoConverge.ABSTOL = 0.001
**** Param: AutoConverge.VNTOL = 0.001
**** Param: AutoConverge.PIVTOL = 1e-10
**** Param: ADVCONV = 0
**** Param: Current_Simulation = 0
**** Param: METHOD = 0
**** Param: TRTOL = 7
**** Param: STEPGMIN = 0
**** Param: GMINSTEPS = 0
**** Param: ITL6 = 0
**** Param: NOSTEPDEP = 0
**** Param: PTRANSTEP = 0
**** Param: GMINSRC = 0
**** Param: PSEUDOTRAN = 0
**** Param: NOSTEPSRC = 0

ERROR -- Convergence problem in bias point calculation


  Last node voltages tried were:

 NODE   VOLTAGE     NODE   VOLTAGE     NODE   VOLTAGE     NODE   VOLTAGE


(   S1)    0.0000  (   S2)    0.0000  (   S3)     .2222  (   S4)    2.2222      

(   V+)    1.1111  (   V-)   -1.1111  (N02116)    -.5721 (N02120)    -.1845     

(N02128)     .2222 (N02585)    -.4498 (N02597)    -.1933 (X_U1.2)   -1.3333     

(X_U1.3)    -.0539 (X_U1.4)    -.3000 (X_U1.5) 443.0E-06 (X_U1.6)     .2222     

(X_U1.7)     .6166 (X_U1.8)    -.3957 (X_U2.9)   -1.2793 (X_U1.10)    5.1110    

(X_U1.12)   -1.3331                   (X_U1.13)     .2222                       

(X_U1.14)    -.1097                   (X_U1.16)    -.2258                       

(X_U1.17)   -1.3333                   (X_U1.18)-11.99E+03                       

(X_U1.19)    -.6879                   (X_U1.20)    -.6879                       

(X_U1.21)-11.99E+03                   (X_U1.22)    -.0244                       

(X_U1.23)    -.0879                   (X_U1.24)    -.2105                       

(X_U1.25)     .0982                   (X_U1.26)    -.4498                       

(X_U1.27)    -.3493                   (X_U1.29)    -.2497                       

(X_U1.30)     .2222                   (X_U1.31)    0.0000                       

(X_U1.32)     .1854                   (X_U1.33)    0.0000                       

(X_U1.34)     .5730                   (X_U1.36)   -1.3333                       

(X_U1.38)   -1.2206                   (X_U1.39)     .5561                       

(X_U1.42)     .4612                   (X_U1.44)    0.0000                       

(X_U1.45)    -.0636                   (X_U1.46)     .5137                       

(X_U1.47)  500.8200                   (X_U1.48)     .0530                       

(X_U1.50)    -.3125                   (X_U1.51)    -.1271                       

(X_U2.10)    -.9524                   (X_U2.11)    -.1848                       

(X_U2.12)   -1.3603                   (X_U2.13)    -.1936                       

(X_U2.14)   -1.1930                   (X_U2.15)    -.9554                       

(X_U2.16)   -1.3211                   (X_U2.17)   -1.1806                       

(X_U2.18)    -.9358                   (X_U2.19)-274.6E-27                       

(X_U2.20)   -1.4889                   (X_U2.21)    1.4889                       

(X_U2.22)-61.03E-27                   (X_U2.23)-13.56E-27                       

(X_U2.24)    0.0000                   (X_U2.25)     .1644                       

(X_U2.26)    -.1644                   (X_U2.29)    0.0000                       

(X_U2.30)     .8406                   (X_U2.31) 840.6E-09                       

(X_U2.32)   -1.0917                   (X_U2.33)    -.8469                       

(X_U2.70) 3.967E-18                   (X_U2.71)    0.0000                       

(X_U2.72)    0.0000                   (X_U2.98)    0.0000                   


  These voltages failed to converge:

    V(X_U2.11)                =  -185.94mV  \  -184.79mV
    V(X_U2.31)                =    3.783uV  \   840.60nV
    V(X_U2.30)                =     3.783V  \   840.60mV

  These supply currents failed to converge:

    I(X_U1.EV17)              =  -159.33uA  \  -158.85uA
    I(X_U2.EOS1)              =   404.09uA  \   410.93uA
    I(X_U2.E3)                =    3.783uA  \   840.60nA
    I(V_V5)                   =    10.00GA  \    10.00GA
    I(V_V6)                   =   -10.00GA  \   -10.00GA
    I(X_U1.VFI5)              =    41.87uA  \    41.76uA
    I(X_U1.VFI3)              =   188.41uA  \   187.94uA
    I(X_U1.VV20)              =  -159.33uA  \  -158.85uA
    I(X_U2.VOS2)              =   298.67uA  \   292.31uA
    I(X_U2.V2)                =   -10.00GA  \   -10.00GA
    I(X_U2.V3)                =   -10.00GA  \   -10.00GA

  These devices failed to converge:
    X_U2.Q2   X_U2.Q4   

**** Interrupt ****
**** Param: RELTOL = 0.001
**** Param: ABSTOL = 1e-12
**** Param: VNTOL = 1e-06
**** Param: GMIN = 1e-12
**** Param: TSTOP = 0.01
**** Param: TMAX = 10
**** Param: ITL1 = 150
**** Param: ITL2 = 20
**** Param: ITL4 = 100
**** Param: AutoConverge = 0
**** Param: AutoConverge.ITL1 = 1000
**** Param: AutoConverge.ITL2 = 1000
**** Param: AutoConverge.ITL4 = 1000
**** Param: AutoConverge.RELTOL = 0.05
**** Param: AutoConverge.ABSTOL = 0.001
**** Param: AutoConverge.VNTOL = 0.001
**** Param: AutoConverge.PIVTOL = 1e-10
**** Param: ADVCONV = 0
**** Param: Current_Simulation = 0
**** Param: METHOD = 0
**** Param: TRTOL = 7
**** Param: STEPGMIN = 0
**** Param: GMINSTEPS = 0
**** Param: ITL6 = 0
**** Param: NOSTEPDEP = 0
**** Param: PTRANSTEP = 0
**** Param: GMINSRC = 0
**** Param: PSEUDOTRAN = 0
**** Param: NOSTEPSRC = 0

          JOB ABORTED

**** 07/08/24 17:52:39 ****** PSpice 23.1.0 (29 May 2024) ***** ID# 0 ********

 ** Profile: "SCHEMATIC-TRAN"  [ d:\projects\ownprojects\wsk2024_ma1\wsk2024_ma1-PSpiceFiles\SCHEMATIC\TRAN.sim ] 


 ****     JOB STATISTICS SUMMARY


******************************************************************************



  Total job time (using Solver 1)   =      264.59
